LAMMPS (29 Sep 2021 - Update 2)

# Initialization
units		          lj
dimension 	      2
atom_style	      atomic
pair_style	      lj/cut 2.5
boundary	        p p p

# System definition
region            b block -30 30 -30 30 -0.5 0.5
create_box        2 b
Created orthogonal box = (-30.000000 -30.000000 -0.50000000) to (30.000000 30.000000 0.50000000)
create_atoms      1 random 1500 341343 b
Created 1500 atoms
create_atoms      2 random 100 127578 b
Created 100 atoms

#Sim settings
mass              1 1
mass              2 1
pair_coeff        1 1 1.0 1.0
pair_coeff        2 2 0.5 3.0
neigh_modify      every 1 delay 5 check yes
dump              mydmp all atom 1000 dump.lammpstrj

#run
thermo            10
minimize          1.0e-4 1.0e-6 1000 1000
  update every 1 steps, delay 0 steps, check yes
Step Temp E_pair E_mol TotEng Press
0            0 2.1537524e+14            0 2.1537524e+14 5.7433397e+14
Loop time of 0.022158 on 1 procs for 82 steps with 1600 atoms

Minimization stats:
  Stopping criterion = energy tolerance
  Energy initial, next-to-last, final =
  Force two-norm initial, final = 4.7013339e+19 142.47510
  Force max component initial, final = 3.0726008e+19 85.438437
  Final line search alpha, max atom move = 6.4805397e-06 0.00055368718
  Iterations, force evaluations = 82 152

fix		            mynve all nve
fix		            mylgv all langevin 1.0 1.0 0.1 1530917
fix		            myefn all enforce2d
timestep	        0.005
thermo		        1000
run		            10000
Step Temp E_pair E_mol TotEng Press
82            0   -1.7475204            0   -1.7475204  -0.15979225
Averages over the last 6 of 12 rows, steps 6000 to 10082:
Temp E_pair E_mol TotEng Press
0.99252 -1.31644 0 -0.324544 0.78615
Loop time of 1.25392 on 1 procs for 10000 steps with 1600 atoms
